98
	Energy:      64.5746094
C          4.62823        3.17371       -1.36935
C          5.71604        4.22082       -0.98092
C          4.69475        1.81969       -0.59188
H          4.66369        2.98526       -2.44596
H          3.66332        3.65091       -1.18593
C          5.49548        0.78719       -1.43809
C          3.26271        1.26355       -0.29205
H          5.20256        1.99706        0.35929
H          4.96638        0.55879       -2.36643
H          5.65073       -0.15030       -0.90792
H          6.48159        1.15888       -1.71146
H          2.93751        0.64997       -1.13632
H          2.55252        2.09177       -0.24061
C          3.08360        0.46486        1.03929
C          4.17392       -0.61534        1.24662
C          1.62093       -0.09378        1.07544
H          3.18517        1.17085        1.86789
H          4.18139       -1.33187        0.42300
H          5.16257       -0.15937        1.32022
H          4.02466       -1.15669        2.18192
H          1.37456       -0.55833        0.11675
H          0.96254        0.77449        1.15877
C          1.28491       -1.10184        2.22098
C          1.67188       -2.54504        1.77256
C         -0.23809       -1.03970        2.57564
H          1.85875       -0.81103        3.10433
H          0.79542       -3.11627        1.45819
H          2.16205       -3.08880        2.58157
H          2.35710       -2.54915        0.92557
C         -2.85262       -3.00771        4.85304
C         -2.47657       -4.45533        4.40807
C         -4.40858       -2.86652        4.90643
H         -2.24721       -4.49895        3.34094
H         -3.28373       -5.16698        4.57246
H         -1.61195       -4.82671        4.95935
H         -4.83532       -3.42232        4.06727
H         -4.68015       -1.82183        4.73539
C         -5.11331       -3.29052        6.24136
C         -4.59587       -4.63115        6.81876
C         -6.66076       -3.25868        6.00344
H         -4.88114       -2.52890        6.99082
H         -4.80462       -5.46046        6.14165
H         -5.05686       -4.84492        7.78455
H         -3.52062       -4.59316        7.00062
H         -6.89356       -3.70731        5.03445
H         -6.92117       -2.20246        5.90295
C         -7.57894       -3.92155        7.08654
C         -7.77554       -5.42936        6.74564
C         -8.97590       -3.22033        7.14418
H         -7.10437       -3.81199        8.06449
H         -8.16394       -5.54607        5.73099
H         -6.84835       -5.99289        6.81251
H         -8.47730       -5.91962        7.41507
H         -9.65531       -3.69553        6.43119
H         -8.86934       -2.18601        6.80913
C         -9.64994       -3.15284        8.55225
C         -9.82117       -4.55089        9.19788
C        -11.03368       -2.44382        8.42840
H         -9.00356       -2.55240        9.19770
H        -10.36560       -5.22172        8.52915
H        -10.37673       -4.50393       10.13288
H         -8.85028       -4.99169        9.43170
H        -11.82280       -3.18722        8.28510
H        -11.03523       -1.83117        7.52305
C        -11.40086       -1.49874        9.60794
C          7.16013        3.69243       -1.16448
H          5.57954        4.47099        0.07449
C          5.48538        5.50926       -1.81890
H          7.35003        2.84250       -0.50697
H          7.89776        4.45222       -0.90276
H          7.33593        3.38681       -2.19868
C        -11.54991       -2.22997       10.96086
C        -12.71784       -0.75915        9.28274
H        -10.61379       -0.74775        9.71115
H        -12.24978       -3.06587       10.87918
H        -11.92482       -1.54730       11.72712
H        -10.58601       -2.60616       11.30830
H        -13.54356       -1.46682        9.16666
H        -12.62180       -0.18841        8.35641
H        -12.97594       -0.06021       10.08191
H          5.66568        5.30224       -2.87706
C          6.35755        6.70370       -1.37885
H          4.43896        5.81110       -1.72800
C         -0.71042       -1.64801        3.94457
H         -0.78450       -1.50205        1.75005
H         -0.55846        0.00518        2.58278
C         -2.24535       -1.96771        3.85282
H         -2.45982       -2.80177        5.85176
H         -2.49957       -2.29937        2.84326
H         -2.76024       -1.01201        3.97881
C          0.16174       -2.81663        4.46488
H         -0.59652       -0.86145        4.69548
H          0.12757       -3.67383        3.79026
H         -0.16466       -3.13342        5.45651
H          1.19980       -2.50365        4.58592
H          7.41217        6.53089       -1.60134
H          6.24920        6.88991       -0.30803
H          6.05113        7.60493       -1.91452
